/*--------------------------------*- C++ -*----------------------------------*\
| =========                 |                                                 |
| \\      /  F ield         | OpenFOAM: The Open Source CFD Toolbox           |
|  \\    /   O peration     | Version:  v2412                                 |
|   \\  /    A nd           | Website:  www.openfoam.com                      |
|    \\/     M anipulation  |                                                 |
\*---------------------------------------------------------------------------*/
FoamFile
{
    version     2.0;
    format      ascii;
    class       dictionary;
    object      blockMeshDict;
}
// * * * * * * * * * * * * * * * * * * * * * * * * * * * * * * * * * * * * * //

scale   1;

vertices
(
    (-0.4 -0.5 0)
    (0.4 -0.5 0)
    (0.4  1.5 0)
    (-0.4  1.5 0)
    (-0.4 -0.5 0.8)
    (0.4 -0.5 0.8)
    (0.4  1.5 0.8)
    (-0.4  1.5 0.8)
);

blocks
(
    hex (0 1 2 3 4 5 6 7) (8 20 8) simpleGrading (1 1 1)
);

edges
(
);

boundary
(
    frontAndBack
    {
        type patch;
        faces
        (
            (0 4 7 3)
            (1 5 6 2) 
        );
    }
    inlet
    {
        type patch;
        faces
        (
            (0 1 5 4)
        );
    }
    outlet
    {
        type patch;
        faces
        (
            (3 7 6 2)
        );
    }
    lowerWall
    {
        type wall;
        faces
        (
            (0 3 2 1)
        );
    }
    upperWall
    {
        type patch;
        faces
        (
            (4 5 6 7)
        );
    }
);


// ************************************************************************* //